@<TRIPOS>MOLECULE
ANT
   24    26     1     0     0
SMALL
resp


@<TRIPOS>ATOM
      1 C1          -1.2210     0.7220     0.0000 ca         1 ANT       0.057470
      2 C2          -1.2210    -0.7220     0.0000 ca         1 ANT       0.057470
      3 C3          -2.4760     1.4050     0.0000 ca         1 ANT      -0.201440
      4 C4          -2.4760    -1.4050     0.0000 ca         1 ANT      -0.201440
      5 C5          -3.6540     0.7120     0.0000 ca         1 ANT      -0.128671
      6 C6          -3.6540    -0.7120     0.0000 ca         1 ANT      -0.128671
      7 C7           0.0000     1.4020     0.0000 ca         1 ANT      -0.168016
      8 C8           1.2210     0.7220     0.0000 ca         1 ANT       0.057470
      9 C9           0.0000    -1.4020     0.0000 ca         1 ANT      -0.168016
     10 C10          1.2210    -0.7220     0.0000 ca         1 ANT       0.057470
     11 H1          -2.4750     2.4900     0.0000 ha         1 ANT       0.146215
     12 H2           0.0000     2.4880     0.0000 ha         1 ANT       0.140148
     13 H3           0.0000    -2.4880     0.0000 ha         1 ANT       0.140148
     14 H4          -2.4750    -2.4900     0.0000 ha         1 ANT       0.146215
     15 H5          -4.5990    -1.2440     0.0000 ha         1 ANT       0.140359
     16 H6          -4.5990     1.2440     0.0000 ha         1 ANT       0.140359
     17 C11          2.4760     1.4050     0.0000 ca         1 ANT      -0.201440
     18 C12          3.6540     0.7120     0.0000 ca         1 ANT      -0.128671
     19 C13          2.4760    -1.4050     0.0000 ca         1 ANT      -0.201440
     20 C14          3.6540    -0.7120     0.0000 ca         1 ANT      -0.128671
     21 H7           2.4750     2.4900     0.0000 ha         1 ANT       0.146215
     22 H8           4.5990     1.2440     0.0000 ha         1 ANT       0.140359
     23 H9           4.5990    -1.2440     0.0000 ha         1 ANT       0.140359
     24 H10          2.4750    -2.4900     0.0000 ha         1 ANT       0.146215
@<TRIPOS>BOND
     1     1     2 ar  
     2     1     3 ar  
     3     1     7 ar  
     4     2     4 ar  
     5     2     9 ar  
     6     3     5 ar  
     7     3    11 1   
     8     4     6 ar  
     9     4    14 1   
    10     5     6 ar  
    11     5    16 1   
    12     6    15 1   
    13     7     8 ar  
    14     7    12 1   
    15     8    10 ar  
    16     8    17 ar  
    17     9    10 ar  
    18     9    13 1   
    19    10    19 ar  
    20    17    18 ar  
    21    17    21 1   
    22    18    20 ar  
    23    18    22 1   
    24    19    20 ar  
    25    19    24 1   
    26    20    23 1   
@<TRIPOS>SUBSTRUCTURE
     1 ANT         1 TEMP              0 ****  ****    0 ROOT
