@<TRIPOS>MOLECULE
BTBT
   24    27     1     0     0
SMALL
resp


@<TRIPOS>ATOM
      1 C1          -1.1830    -3.5140     0.0000 ca         1 BTBT     -0.210848
      2 C2          -0.1650    -4.4600     0.0000 ca         1 BTBT     -0.140737
      3 C3           1.1830    -4.0680     0.0000 ca         1 BTBT     -0.163962
      4 C4           1.5290    -2.7260    -0.0000 ca         1 BTBT     -0.194065
      5 C5           0.5200    -1.7520    -0.0000 ca         1 BTBT      0.114964
      6 C6          -0.8370    -2.1640     0.0000 ca         1 BTBT      0.032450
      7 C7           0.6070    -0.3220    -0.0000 cc         1 BTBT     -0.045097
      8 C8          -0.6070     0.3220    -0.0000 cd         1 BTBT     -0.045097
      9 S1          -1.9590    -0.7950    -0.0000 ss         1 BTBT     -0.089139
     10 S2           1.9590     0.7950    -0.0000 ss         1 BTBT     -0.089139
     11 C9           0.8370     2.1640     0.0000 ca         1 BTBT      0.032450
     12 C10         -0.5200     1.7520    -0.0000 ca         1 BTBT      0.114964
     13 C11          1.1830     3.5140     0.0000 ca         1 BTBT     -0.210848
     14 C12          0.1650     4.4600     0.0000 ca         1 BTBT     -0.140737
     15 C13         -1.1830     4.0680     0.0000 ca         1 BTBT     -0.163962
     16 C14         -1.5290     2.7260    -0.0000 ca         1 BTBT     -0.194065
     17 H1          -2.2220    -3.8200     0.0000 ha         1 BTBT      0.208027
     18 H2          -0.4170    -5.5140     0.0000 ha         1 BTBT      0.146416
     19 H3           1.9590    -4.8240     0.0000 ha         1 BTBT      0.149937
     20 H4           2.5700    -2.4230    -0.0000 ha         1 BTBT      0.192054
     21 H5           2.2220     3.8200     0.0000 ha         1 BTBT      0.208027
     22 H6           0.4170     5.5140     0.0000 ha         1 BTBT      0.146416
     23 H7          -1.9590     4.8240     0.0000 ha         1 BTBT      0.149937
     24 H8          -2.5700     2.4230    -0.0000 ha         1 BTBT      0.192054
@<TRIPOS>BOND
     1     1     2 ar  
     2     1     6 ar  
     3     1    17 1   
     4     2     3 ar  
     5     2    18 1   
     6     3     4 ar  
     7     3    19 1   
     8     4     5 ar  
     9     4    20 1   
    10     5     6 ar  
    11     5     7 1   
    12     6     9 1   
    13     7     8 2   
    14     7    10 1   
    15     8     9 1   
    16     8    12 1   
    17    10    11 1   
    18    11    12 ar  
    19    11    13 ar  
    20    12    16 ar  
    21    13    14 ar  
    22    13    21 1   
    23    14    15 ar  
    24    14    22 1   
    25    15    16 ar  
    26    15    23 1   
    27    16    24 1   
@<TRIPOS>SUBSTRUCTURE
     1 BTBT        1 TEMP              0 ****  ****    0 ROOT
