@<TRIPOS>MOLECULE
BTNT
   30    34     1     0     0
SMALL
resp


@<TRIPOS>ATOM
      1 S1          -1.7080    -1.9370    -0.0000 ss         1 BTNT     -0.103555
      2 C1          -3.1710    -0.9420     0.0000 ca         1 BTNT      0.019823
      3 C2          -5.5230    -0.4770     0.0010 ca         1 BTNT     -0.161759
      4 H1          -6.5520    -0.8230     0.0010 ha         1 BTNT      0.150545
      5 H2          -6.0750     1.6110     0.0000 ha         1 BTNT      0.147266
      6 H3          -3.7370     2.4360    -0.0010 ha         1 BTNT      0.203974
      7 C3          -5.2510     0.9020     0.0000 ca         1 BTNT     -0.134297
      8 C4          -3.9430     1.3690    -0.0000 ca         1 BTNT     -0.237537
      9 H4          -4.7000    -2.4730     0.0010 ha         1 BTNT      0.203092
     10 C5          -4.4870    -1.4080     0.0010 ca         1 BTNT     -0.187979
     11 C6          -2.8810     0.4490    -0.0000 ca         1 BTNT      0.122721
     12 C7          -1.4620     0.6610    -0.0010 cc         1 BTNT      0.009639
     13 C8           1.0020     1.1240    -0.0000 ca         1 BTNT     -0.017130
     14 C9           1.7560    -1.1940    -0.0010 ca         1 BTNT     -0.179353
     15 C10          4.1920    -1.6560    -0.0000 ca         1 BTNT     -0.173749
     16 C11          5.7610     0.1910     0.0010 ca         1 BTNT     -0.140329
     17 H5           6.7910     0.5370     0.0010 ha         1 BTNT      0.145264
     18 H6           4.9340     2.1670     0.0010 ha         1 BTNT      0.124100
     19 C12          4.7290     1.0990     0.0010 ca         1 BTNT     -0.150794
     20 H7           6.3140    -1.9100     0.0000 ha         1 BTNT      0.141919
     21 C13          5.4890    -1.2020     0.0000 ca         1 BTNT     -0.131445
     22 H8           3.9820    -2.7230    -0.0010 ha         1 BTNT      0.138128
     23 H9           1.5530    -2.2620    -0.0010 ha         1 BTNT      0.185620
     24 C14          3.0960    -0.7470    -0.0000 ca         1 BTNT      0.032748
     25 C15          3.3730     0.6670     0.0000 ca         1 BTNT      0.022137
     26 H10          2.5100     2.6550     0.0010 ha         1 BTNT      0.205222
     27 C16          2.2970     1.5890     0.0000 ca         1 BTNT     -0.168137
     28 C17          0.7100    -0.2850    -0.0000 ca         1 BTNT      0.081727
     29 S2          -0.4710     2.1180    -0.0000 ss         1 BTNT     -0.119844
     30 C18         -0.7130    -0.4910    -0.0010 cd         1 BTNT     -0.028016
@<TRIPOS>BOND
     1     1     2 1   
     2     1    30 1   
     3     2    10 ar  
     4     2    11 ar  
     5     3     4 1   
     6     3     7 ar  
     7     3    10 ar  
     8     5     7 1   
     9     6     8 1   
    10     7     8 ar  
    11     8    11 ar  
    12     9    10 1   
    13    11    12 1   
    14    12    29 1   
    15    12    30 2   
    16    13    27 ar  
    17    13    28 ar  
    18    13    29 1   
    19    14    23 1   
    20    14    24 ar  
    21    14    28 ar  
    22    15    21 ar  
    23    15    22 1   
    24    15    24 ar  
    25    16    17 1   
    26    16    19 ar  
    27    16    21 ar  
    28    18    19 1   
    29    19    25 ar  
    30    20    21 1   
    31    24    25 ar  
    32    25    27 ar  
    33    26    27 1   
    34    28    30 1   
@<TRIPOS>SUBSTRUCTURE
     1 BTNT        1 TEMP              0 ****  ****    0 ROOT
