@<TRIPOS>MOLECULE
DNTT
   36    41     1     0     0
SMALL
resp


@<TRIPOS>ATOM
      1 S1           0.5450    -2.0520     0.0000 ss         1 DNTT     -0.124866
      2 C1          -0.3930    -0.5620     0.0000 cc         1 DNTT      0.008472
      3 C2           1.8070     0.3070    -0.0000 ca         1 DNTT      0.065915
      4 H1           2.7140     2.2570     0.0000 ha         1 DNTT      0.190597
      5 H2           5.1570     2.6370     0.0000 ha         1 DNTT      0.136742
      6 H3           7.4610     1.7460     0.0000 ha         1 DNTT      0.146842
      7 H4           7.8560    -0.7150     0.0000 ha         1 DNTT      0.146850
      8 H5           5.9470    -2.2820    -0.0000 ha         1 DNTT      0.122017
      9 H6           3.5090    -2.6910    -0.0000 ha         1 DNTT      0.212395
     10 C3           4.4360    -0.7310    -0.0000 ca         1 DNTT      0.020888
     11 C4           5.7770    -1.2080    -0.0000 ca         1 DNTT     -0.146515
     12 C5           6.8380    -0.3350     0.0000 ca         1 DNTT     -0.140169
     13 C6           6.6140     1.0670     0.0000 ca         1 DNTT     -0.144510
     14 C7           5.3320     1.5630     0.0000 ca         1 DNTT     -0.168339
     15 C8           2.8820     1.1820     0.0000 ca         1 DNTT     -0.192711
     16 C9           4.2070     0.6900    -0.0000 ca         1 DNTT      0.048871
     17 C10          3.3300    -1.6180    -0.0000 ca         1 DNTT     -0.186910
     18 C11         -2.0520     1.1100     0.0000 ca         1 DNTT      0.004428
     19 H7          -3.5090     2.6910     0.0000 ha         1 DNTT      0.212395
     20 H8          -5.9470     2.2820     0.0000 ha         1 DNTT      0.122017
     21 H9          -7.8560     0.7150    -0.0000 ha         1 DNTT      0.146850
     22 H10         -7.4610    -1.7460    -0.0000 ha         1 DNTT      0.146842
     23 H11         -5.1570    -2.6370    -0.0000 ha         1 DNTT      0.136742
     24 H12         -2.7140    -2.2570     0.0000 ha         1 DNTT      0.190597
     25 C12         -4.2070    -0.6900    -0.0000 ca         1 DNTT      0.048871
     26 C13         -5.3320    -1.5630    -0.0000 ca         1 DNTT     -0.168339
     27 C14         -6.6140    -1.0670    -0.0000 ca         1 DNTT     -0.144510
     28 C15         -6.8380     0.3350     0.0000 ca         1 DNTT     -0.140169
     29 C16         -5.7770     1.2080     0.0000 ca         1 DNTT     -0.146515
     30 C17         -4.4360     0.7310     0.0000 ca         1 DNTT      0.020888
     31 C18         -3.3300     1.6180     0.0000 ca         1 DNTT     -0.186910
     32 C19         -2.8820    -1.1820    -0.0000 ca         1 DNTT     -0.192711
     33 S2          -0.5450     2.0520    -0.0000 ss         1 DNTT     -0.124866
     34 C20          0.3930     0.5620     0.0000 cd         1 DNTT      0.008472
     35 C21         -1.8070    -0.3070     0.0000 ca         1 DNTT      0.065915
     36 C22          2.0520    -1.1100    -0.0000 ca         1 DNTT      0.004428
@<TRIPOS>BOND
     1     1     2 1   
     2     1    36 1   
     3     2    34 2   
     4     2    35 1   
     5     3    15 ar  
     6     3    34 1   
     7     3    36 ar  
     8     4    15 1   
     9     5    14 1   
    10     6    13 1   
    11     7    12 1   
    12     8    11 1   
    13     9    17 1   
    14    10    11 ar  
    15    10    16 ar  
    16    10    17 ar  
    17    11    12 ar  
    18    12    13 ar  
    19    13    14 ar  
    20    14    16 ar  
    21    15    16 ar  
    22    17    36 ar  
    23    18    31 ar  
    24    18    33 1   
    25    18    35 ar  
    26    19    31 1   
    27    20    29 1   
    28    21    28 1   
    29    22    27 1   
    30    23    26 1   
    31    24    32 1   
    32    25    26 ar  
    33    25    30 ar  
    34    25    32 ar  
    35    26    27 ar  
    36    27    28 ar  
    37    28    29 ar  
    38    29    30 ar  
    39    30    31 ar  
    40    32    35 ar  
    41    33    34 1   
@<TRIPOS>SUBSTRUCTURE
     1 DNTT        1 TEMP              0 ****  ****    0 ROOT
