@<TRIPOS>MOLECULE
MOL
   24    26     1     0     0
SMALL
resp


@<TRIPOS>ATOM
      1 C1           0.0000     0.7230    -1.2290 ca         1 MOL      -0.221321
      2 C2          -0.0000    -0.7230    -1.2290 ca         1 MOL      -0.221321
      3 C3           0.0000     1.4030    -2.4840 ca         1 MOL       0.213474
      4 C4          -0.0000    -1.4030    -2.4840 ca         1 MOL       0.213474
      5 C5           0.0000     0.7080    -3.6580 ca         1 MOL       0.155940
      6 C6          -0.0000    -0.7080    -3.6580 ca         1 MOL       0.155940
      7 C7           0.0000     1.3900     0.0000 ca         1 MOL       0.467854
      8 C8           0.0000     0.7230     1.2290 ca         1 MOL      -0.221321
      9 C9          -0.0000    -1.3900     0.0000 ca         1 MOL       0.467854
     10 C10         -0.0000    -0.7230     1.2290 ca         1 MOL      -0.221321
     11 F1           0.0000     2.7380    -2.5420 f          1 MOL      -0.153663
     12 F2           0.0000     2.7290    -0.0000 f          1 MOL      -0.178131
     13 F3          -0.0000    -2.7290    -0.0000 f          1 MOL      -0.178131
     14 F4          -0.0000    -2.7380    -2.5420 f          1 MOL      -0.153663
     15 F5           0.0000    -1.3420    -4.8300 f          1 MOL      -0.139290
     16 F6           0.0000     1.3420    -4.8300 f          1 MOL      -0.139290
     17 C11          0.0000     1.4030     2.4840 ca         1 MOL       0.213474
     18 C12          0.0000     0.7080     3.6580 ca         1 MOL       0.155940
     19 C13         -0.0000    -1.4030     2.4840 ca         1 MOL       0.213474
     20 C14         -0.0000    -0.7080     3.6580 ca         1 MOL       0.155940
     21 F7           0.0000     2.7380     2.5420 f          1 MOL      -0.153663
     22 F8          -0.0000    -2.7380     2.5420 f          1 MOL      -0.153663
     23 F9           0.0000     1.3420     4.8300 f          1 MOL      -0.139290
     24 F10         -0.0000    -1.3420     4.8300 f          1 MOL      -0.139290
@<TRIPOS>BOND
     1     1     2 ar  
     2     1     3 ar  
     3     1     7 ar  
     4     2     4 ar  
     5     2     9 ar  
     6     3     5 ar  
     7     3    11 1   
     8     4     6 ar  
     9     4    14 1   
    10     5     6 ar  
    11     5    16 1   
    12     6    15 1   
    13     7     8 ar  
    14     7    12 1   
    15     8    10 ar  
    16     8    17 ar  
    17     9    10 ar  
    18     9    13 1   
    19    10    19 ar  
    20    17    18 ar  
    21    17    21 1   
    22    18    20 ar  
    23    18    23 1   
    24    19    20 ar  
    25    19    22 1   
    26    20    24 1   
@<TRIPOS>SUBSTRUCTURE
     1 MOL         1 TEMP              0 ****  ****    0 ROOT
